
  SciTegic06091010432D

 11 10  0  0  0  0            999 V2000
    3.9000    0.7500    0.0000 P   0  0
    2.6000    0.0000    0.0000 O   0  0
    5.2000    0.0000    0.0000 O   0  0
    3.9000    1.9500    0.0000 O   0  5
    2.8608    1.3502    0.0000 S   0  0
    1.3000    0.7500    0.0000 C   0  0
    6.5000    0.7500    0.0000 C   0  0
    0.2606    0.1503    0.0000 C   0  0
    1.3000    1.9500    0.0000 C   0  0
    7.5394    0.1503    0.0000 C   0  0
    6.5000    1.9500    0.0000 C   0  0
  1  2  1  0
  1  3  1  0
  1  4  1  0
  1  5  2  0
  3  7  1  0
  6  8  1  0
  6  9  1  0
  7 10  1  0
  7 11  1  0
 12 11  1  0
 15 11  1  0
M  CHG  1   4  -1
M  END
> <HOMO>
    -4.844630

> <LUMO>
     4.710268

> <MW>
215.252

> <CAS>
29918-57-8

> <DOSE_VALUE>
9.4075693535e-002

> <ALogP>
-0.601

> <Num>
4673

> <logLD50>
-1.02652257133448

> <LD50>
20.2499811848614

> <IndTox>
6

> <Toxicity>
slight

$$$$
